[TITLE]
Balerma Network  

[JUNCTIONS]
;ID              	Elev        	Demand      	Pattern         
 179001          	60.0000     	5.550000    	                	;
 179             	60.0000     	5.550000    	                	;
 177             	58.9000     	5.550000    	                	;
 174             	60.0000     	5.550000    	                	;
 173             	59.3000     	5.550000    	                	;
 171001          	60.0000     	5.550000    	                	;
 171             	60.0000     	5.550000    	                	;
 172             	60.0000     	5.550000    	                	;
 170             	60.0000     	5.550000    	                	;
 165             	56.7000     	5.550000    	                	;
 166             	57.3000     	5.550000    	                	;
 168             	57.1000     	5.550000    	                	;
 169             	56.5000     	5.550000    	                	;
 163             	55.2000     	5.550000    	                	;
 164             	57.8000     	5.550000    	                	;
 162             	55.2000     	5.550000    	                	;
 161             	55.0000     	5.550000    	                	;
 106             	54.0000     	5.550000    	                	;
 124             	52.2000     	5.550000    	                	;
 125             	51.1000     	5.550000    	                	;
 125001          	49.4000     	5.550000    	                	;
 126             	49.3000     	5.550000    	                	;
 127             	56.5000     	5.550000    	                	;
 128             	55.0000     	5.550000    	                	;
 129             	52.3000     	5.550000    	                	;
 130             	50.2000     	5.550000    	                	;
 132             	55.0000     	5.550000    	                	;
 131001          	57.0000     	5.550000    	                	;
 131             	52.4000     	5.550000    	                	;
 133             	46.6000     	5.550000    	                	;
 134             	28.8000     	5.550000    	                	;
 135             	60.0000     	5.550000    	                	;
 136             	43.3000     	5.550000    	                	;
 137             	25.0000     	5.550000    	                	;
 138             	23.6000     	5.550000    	                	;
 139             	42.5000     	5.550000    	                	;
 141             	50.0000     	5.550000    	                	;
 143             	38.3000     	5.550000    	                	;
 144             	36.8000     	5.550000    	                	;
 145             	27.0000     	5.550000    	                	;
 142             	24.0000     	5.550000    	                	;
 140001          	55.5000     	5.550000    	                	;
 151             	56.5000     	5.550000    	                	;
 152             	55.0000     	5.550000    	                	;
 107             	50.0000     	5.550000    	                	;
 108             	46.2000     	5.550000    	                	;
 109             	48.6000     	5.550000    	                	;
 110             	47.6000     	5.550000    	                	;
 111             	47.1000     	5.550000    	                	;
 113             	47.9000     	5.550000    	                	;
 114             	46.0000     	5.550000    	                	;
 112             	45.6000     	5.550000    	                	;
 115             	50.0000     	5.550000    	                	;
 116             	50.0000     	5.550000    	                	;
 117             	47.5000     	5.550000    	                	;
 118             	45.0000     	5.550000    	                	;
 119             	46.0000     	5.550000    	                	;
 105             	55.8000     	5.550000    	                	;
 102             	54.5000     	5.550000    	                	;
 103             	51.5000     	5.550000    	                	;
 104             	52.4000     	5.550000    	                	;
 100             	53.1000     	5.550000    	                	;
 101             	51.2000     	5.550000    	                	;
 96              	52.8000     	5.550000    	                	;
 97              	51.4000     	5.550000    	                	;
 98              	46.0000     	5.550000    	                	;
 99              	45.0000     	5.550000    	                	;
 93              	50.0000     	5.550000    	                	;
 94              	51.7000     	5.550000    	                	;
 95              	51.4000     	5.550000    	                	;
 92              	40.0000     	5.550000    	                	;
 160             	32.9000     	5.550000    	                	;
 159001          	34.0000     	5.550000    	                	;
 159             	31.4000     	5.550000    	                	;
 156             	34.2000     	5.550000    	                	;
 157             	40.0000     	5.550000    	                	;
 158             	46.0000     	5.550000    	                	;
 155             	34.0000     	5.550000    	                	;
 154             	41.6000     	5.550000    	                	;
 153             	34.0000     	5.550000    	                	;
 55              	30.0000     	5.550000    	                	;
 59              	21.0000     	5.550000    	                	;
 60              	11.0000     	5.550000    	                	;
 61              	5.0000      	5.550000    	                	;
 62              	3.5000      	5.550000    	                	;
 147             	33.0000     	5.550000    	                	;
 150             	45.0000     	5.550000    	                	;
 148             	29.0000     	5.550000    	                	;
 149             	19.0000     	5.550000    	                	;
 63              	9.0000      	5.550000    	                	;
 64              	4.5000      	5.550000    	                	;
 65              	3.3000      	5.550000    	                	;
 66              	1.2000      	5.550000    	                	;
 67              	12.3000     	5.550000    	                	;
 68              	9.3000      	5.550000    	                	;
 69              	8.1600      	5.550000    	                	;
 70              	8.8000      	5.550000    	                	;
 71              	8.1000      	5.550000    	                	;
 72              	7.4000      	5.550000    	                	;
 56              	12.9000     	5.550000    	                	;
 57              	4.8000      	5.550000    	                	;
 58              	3.0000      	5.550000    	                	;
 53              	14.5000     	5.550000    	                	;
 54              	4.1000      	5.550000    	                	;
 52              	31.0000     	5.550000    	                	;
 46001           	33.0000     	5.550000    	                	;
 50              	20.0000     	5.550000    	                	;
 51              	4.4000      	5.550000    	                	;
 47              	13.1000     	5.550000    	                	;
 48              	7.1000      	5.550000    	                	;
 49              	1.6000      	5.550000    	                	;
 42              	15.0000     	5.550000    	                	;
 45              	5.9000      	5.550000    	                	;
 46              	3.5000      	5.550000    	                	;
 41              	31.0000     	5.550000    	                	;
 35              	30.0000     	5.550000    	                	;
 36              	13.0000     	5.550000    	                	;
 39              	10.0000     	5.550000    	                	;
 40              	6.3000      	5.550000    	                	;
 37              	6.0000      	5.550000    	                	;
 91              	42.5000     	5.550000    	                	;
 90              	45.0000     	5.550000    	                	;
 89              	47.0000     	5.550000    	                	;
 31              	20.0000     	5.550000    	                	;
 32              	7.1000      	5.550000    	                	;
 34              	4.4000      	5.550000    	                	;
 33              	4.6000      	5.550000    	                	;
 28001           	32.2000     	5.550000    	                	;
 28              	22.5000     	5.550000    	                	;
 29              	9.2000      	5.550000    	                	;
 30              	5.6500      	5.550000    	                	;
 27              	31.2000     	5.550000    	                	;
 26              	12.3000     	5.550000    	                	;
 23              	7.5000      	5.550000    	                	;
 22              	5.2000      	5.550000    	                	;
 87              	40.3000     	5.550000    	                	;
 86              	41.4000     	5.550000    	                	;
 83              	40.2000     	5.550000    	                	;
 77              	45.0000     	5.550000    	                	;
 81              	44.4000     	5.550000    	                	;
 78              	44.8000     	5.550000    	                	;
 79              	45.8000     	5.550000    	                	;
 80              	46.6000     	5.550000    	                	;
 82              	46.9000     	5.550000    	                	;
 84              	40.0000     	5.550000    	                	;
 85              	50.0000     	5.550000    	                	;
 121             	50.0000     	5.550000    	                	;
 122             	49.3000     	5.550000    	                	;
 123             	47.3000     	5.550000    	                	;
 120             	49.5000     	5.550000    	                	;
 75              	47.0000     	5.550000    	                	;
 76              	47.4000     	5.550000    	                	;
 73              	32.5000     	5.550000    	                	;
 74              	40.0000     	5.550000    	                	;
 227             	52.8000     	5.550000    	                	;
 215001          	75.0000     	5.550000    	                	;
 215             	60.0000     	5.550000    	                	;
 219             	50.0000     	5.550000    	                	;
 220             	52.3000     	5.550000    	                	;
 221             	51.7000     	5.550000    	                	;
 222             	52.0000     	5.550000    	                	;
 223             	50.8000     	5.550000    	                	;
 223001          	54.5000     	5.550000    	                	;
 224             	50.1000     	5.550000    	                	;
 225             	49.5000     	5.550000    	                	;
 226             	50.7000     	5.550000    	                	;
 214             	74.0000     	5.550000    	                	;
 216             	62.7000     	5.550000    	                	;
 217             	62.0000     	5.550000    	                	;
 218             	57.2500     	5.550000    	                	;
 201             	95.0000     	5.550000    	                	;
 203             	94.2000     	5.550000    	                	;
 204             	92.9000     	5.550000    	                	;
 205             	91.4000     	5.550000    	                	;
 211             	90.8000     	5.550000    	                	;
 212             	65.0000     	5.550000    	                	;
 206             	84.2000     	5.550000    	                	;
 207             	80.6000     	5.550000    	                	;
 208             	76.8000     	5.550000    	                	;
 209             	70.0000     	5.550000    	                	;
 210             	70.0000     	5.550000    	                	;
 213             	73.8000     	5.550000    	                	;
 200001          	95.0000     	5.550000    	                	;
 199             	94.0000     	5.550000    	                	;
 196             	92.7000     	5.550000    	                	;
 197             	90.0000     	5.550000    	                	;
 198             	89.6000     	5.550000    	                	;
 233             	87.1700     	5.550000    	                	;
 232             	84.2000     	5.550000    	                	;
 231             	80.5000     	5.550000    	                	;
 230             	72.5000     	5.550000    	                	;
 234             	65.0000     	5.550000    	                	;
 194             	95.0000     	5.550000    	                	;
 195             	95.0000     	5.550000    	                	;
 192             	95.0000     	5.550000    	                	;
 193             	85.0000     	5.550000    	                	;
 234001          	65.0000     	5.550000    	                	;
 235             	71.5000     	5.550000    	                	;
 236             	76.0000     	5.550000    	                	;
 237             	83.0000     	5.550000    	                	;
 238             	81.3000     	5.550000    	                	;
 240             	83.0000     	5.550000    	                	;
 239             	86.3000     	5.550000    	                	;
 190001          	95.0000     	5.550000    	                	;
 187             	95.0000     	5.550000    	                	;
 188             	94.2000     	5.550000    	                	;
 189             	90.5000     	5.550000    	                	;
 186             	95.0000     	5.550000    	                	;
 185             	95.0000     	5.550000    	                	;
 235001          	75.5000     	5.550000    	                	;
 241             	83.3000     	5.550000    	                	;
 242             	87.8000     	5.550000    	                	;
 243             	83.6000     	5.550000    	                	;
 244             	78.1000     	5.550000    	                	;
 245             	83.5000     	5.550000    	                	;
 183             	87.7000     	5.550000    	                	;
 184             	85.7000     	5.550000    	                	;
 182             	95.0000     	5.550000    	                	;
 249             	94.1000     	5.550000    	                	;
 248             	95.0000     	5.550000    	                	;
 247             	90.8000     	5.550000    	                	;
 246             	85.0000     	5.550000    	                	;
 181             	93.0000     	5.550000    	                	;
 266             	71.4000     	5.550000    	                	;
 180004          	84.2000     	5.550000    	                	;
 190             	95.0000     	5.550000    	                	;
 191             	91.8000     	5.550000    	                	;
 180003          	90.0000     	5.550000    	                	;
 180002          	95.0000     	5.550000    	                	;
 180001          	95.6000     	5.550000    	                	;
 180             	95.0000     	5.550000    	                	;
 287             	73.3000     	5.550000    	                	;
 286             	72.0000     	5.550000    	                	;
 285             	71.0000     	5.550000    	                	;
 284             	70.0000     	5.550000    	                	;
 200             	77.8000     	5.550000    	                	;
 274             	65.5000     	5.550000    	                	;
 275             	66.0000     	5.550000    	                	;
 276             	71.0000     	5.550000    	                	;
 265             	70.0000     	5.550000    	                	;
 268             	65.0000     	5.550000    	                	;
 269             	66.0000     	5.550000    	                	;
 271             	72.4000     	5.550000    	                	;
 270             	73.7000     	5.550000    	                	;
 318             	35.0000     	5.550000    	                	;
 317             	40.0000     	5.550000    	                	;
 316             	46.0000     	5.550000    	                	;
 315             	45.0000     	5.550000    	                	;
 313             	45.0000     	5.550000    	                	;
 314             	40.0000     	5.550000    	                	;
 312             	45.6000     	5.550000    	                	;
 310             	45.7000     	5.550000    	                	;
 311             	48.4000     	5.550000    	                	;
 309             	50.0000     	5.550000    	                	;
 297             	52.0000     	5.550000    	                	;
 298             	55.0000     	5.550000    	                	;
 299             	60.0000     	5.550000    	                	;
 296             	51.7000     	5.550000    	                	;
 294             	48.5000     	5.550000    	                	;
 293             	47.6000     	5.550000    	                	;
 291             	49.0000     	5.550000    	                	;
 295             	51.4000     	5.550000    	                	;
 288             	55.0000     	5.550000    	                	;
 289             	71.0000     	5.550000    	                	;
 290             	68.0000     	5.550000    	                	;
 282             	66.8000     	5.550000    	                	;
 277             	60.0000     	5.550000    	                	;
 278             	67.2000     	5.550000    	                	;
 279             	71.4000     	5.550000    	                	;
 280             	73.6000     	5.550000    	                	;
 281             	75.0000     	5.550000    	                	;
 272             	73.4000     	5.550000    	                	;
 273             	70.0000     	5.550000    	                	;
 264             	70.5000     	5.550000    	                	;
 257001          	71.0000     	5.550000    	                	;
 258001          	74.4000     	5.550000    	                	;
 259001          	71.6000     	5.550000    	                	;
 260001          	75.3000     	5.550000    	                	;
 261             	76.4000     	5.550000    	                	;
 262             	76.0000     	5.550000    	                	;
 263             	75.8000     	5.550000    	                	;
 255             	82.6000     	5.550000    	                	;
 258             	83.5000     	5.550000    	                	;
 259             	83.3000     	5.550000    	                	;
 260             	81.5000     	5.550000    	                	;
 256             	84.0000     	5.550000    	                	;
 257             	87.0000     	5.550000    	                	;
 254             	83.9000     	5.550000    	                	;
 250004          	85.0000     	5.550000    	                	;
 421             	98.1000     	5.550000    	                	;
 420             	99.8000     	5.550000    	                	;
 419             	101.1000    	5.550000    	                	;
 418             	103.0000    	5.550000    	                	;
 416             	103.0000    	5.550000    	                	;
 417             	104.0000    	5.550000    	                	;
 415             	103.0000    	5.550000    	                	;
 414             	102.0000    	5.550000    	                	;
 413             	100.0000    	5.550000    	                	;
 250001          	100.0000    	5.550000    	                	;
 21              	4.8000      	5.550000    	                	;
 319             	46.9000     	5.550000    	                	;
 320             	47.5000     	5.550000    	                	;
 20              	11.0000     	5.550000    	                	;
 19              	3.2000      	5.550000    	                	;
 18              	8.0000      	5.550000    	                	;
 302             	50.0000     	5.550000    	                	;
 303             	50.0000     	5.550000    	                	;
 305             	51.0000     	5.550000    	                	;
 306             	54.8000     	5.550000    	                	;
 307             	54.8000     	5.550000    	                	;
 321             	50.0000     	5.550000    	                	;
 11              	4.0000      	5.550000    	                	;
 322             	47.4000     	5.550000    	                	;
 323             	44.0000     	5.550000    	                	;
 301             	75.2000     	5.550000    	                	;
 300             	75.0000     	5.550000    	                	;
 324             	53.4000     	5.550000    	                	;
 368             	58.0000     	5.550000    	                	;
 367             	59.8000     	5.550000    	                	;
 369             	59.2000     	5.550000    	                	;
 325             	75.0000     	5.550000    	                	;
 365             	79.7000     	5.550000    	                	;
 362             	80.0000     	5.550000    	                	;
 360001          	80.5000     	5.550000    	                	;
 360             	80.6000     	5.550000    	                	;
 359             	80.7000     	5.550000    	                	;
 361             	79.5000     	5.550000    	                	;
 366             	79.4000     	5.550000    	                	;
 364             	80.0000     	5.550000    	                	;
 363             	80.5000     	5.550000    	                	;
 326             	75.7000     	5.550000    	                	;
 327             	76.5000     	5.550000    	                	;
 328             	77.0000     	5.550000    	                	;
 329             	77.7000     	5.550000    	                	;
 330             	75.3000     	5.550000    	                	;
 334             	80.2000     	5.550000    	                	;
 336             	80.0000     	5.550000    	                	;
 331             	75.7000     	5.550000    	                	;
 332             	75.0000     	5.550000    	                	;
 333             	80.0000     	5.550000    	                	;
 337             	84.3600     	5.550000    	                	;
 338             	81.1000     	5.550000    	                	;
 340             	83.5400     	5.550000    	                	;
 341             	83.6000     	5.550000    	                	;
 250             	83.0000     	5.550000    	                	;
 251             	82.5000     	5.550000    	                	;
 253             	78.8000     	5.550000    	                	;
 252             	78.8000     	5.550000    	                	;
 342             	82.8000     	5.550000    	                	;
 343             	82.2000     	5.550000    	                	;
 344             	80.2000     	5.550000    	                	;
 339             	81.6000     	5.550000    	                	;
 250003          	86.0000     	5.550000    	                	;
 250002          	88.6000     	5.550000    	                	;
 412             	90.0000     	5.550000    	                	;
 411             	89.7000     	5.550000    	                	;
 410             	89.7000     	5.550000    	                	;
 409             	87.0000     	5.550000    	                	;
 408             	86.7000     	5.550000    	                	;
 407001          	85.0000     	5.550000    	                	;
 407             	84.5000     	5.550000    	                	;
 345             	84.4000     	5.550000    	                	;
 346             	84.1000     	5.550000    	                	;
 347             	83.1000     	5.550000    	                	;
 348             	82.9000     	5.550000    	                	;
 349             	82.7600     	5.550000    	                	;
 350             	84.2000     	5.550000    	                	;
 350001          	83.7000     	5.550000    	                	;
 351             	83.6000     	5.550000    	                	;
 356             	82.3000     	5.550000    	                	;
 352             	82.1000     	5.550000    	                	;
 335             	80.4000     	5.550000    	                	;
 406             	84.4000     	5.550000    	                	;
 405             	84.3000     	5.550000    	                	;
 404             	83.7400     	5.550000    	                	;
 353             	81.8000     	5.550000    	                	;
 354             	81.5000     	5.550000    	                	;
 355             	81.1000     	5.550000    	                	;
 357             	82.1000     	5.550000    	                	;
 358             	82.0000     	5.550000    	                	;
 370             	59.5000     	5.550000    	                	;
 371             	59.2000     	5.550000    	                	;
 372             	57.2000     	5.550000    	                	;
 373             	68.0000     	5.550000    	                	;
 374             	69.5000     	5.550000    	                	;
 378             	56.6000     	5.550000    	                	;
 379             	53.0000     	5.550000    	                	;
 380             	50.5000     	5.550000    	                	;
 381             	45.0000     	5.550000    	                	;
 382             	45.0000     	5.550000    	                	;
 376             	56.2000     	5.550000    	                	;
 377             	52.7000     	5.550000    	                	;
 383             	52.7000     	5.550000    	                	;
 384             	56.0000     	5.550000    	                	;
 396001          	80.4000     	5.550000    	                	;
 397             	80.5000     	5.550000    	                	;
 398             	80.5000     	5.550000    	                	;
 400             	81.7000     	5.550000    	                	;
 401             	81.7000     	5.550000    	                	;
 402             	80.8000     	5.550000    	                	;
 403             	80.9000     	5.550000    	                	;
 10              	3.3000      	5.550000    	                	;
 9               	1.7000      	5.550000    	                	;
 8               	8.5000      	5.550000    	                	;
 2               	16.5000     	5.550000    	                	;
 1               	13.2000     	5.550000    	                	;
 3               	23.9000     	5.550000    	                	;
 385             	54.7000     	5.550000    	                	;
 17              	10.0000     	5.550000    	                	;
 16              	8.1000      	5.550000    	                	;
 15              	6.7000      	5.550000    	                	;
 13              	12.4000     	5.550000    	                	;
 12              	15.0000     	5.550000    	                	;
 14              	19.2500     	5.550000    	                	;
 6               	18.4000     	5.550000    	                	;
 5               	12.5000     	5.550000    	                	;
 601             	56.0000     	0.000000    	                	;
 387             	54.8000     	5.550000    	                	;
 388             	54.8000     	5.550000    	                	;
 389             	55.5000     	5.550000    	                	;
 390             	52.5000     	5.550000    	                	;
 391             	53.0000     	5.550000    	                	;
 392             	52.0000     	5.550000    	                	;
 393             	50.0000     	5.550000    	                	;
 394             	56.4000     	5.550000    	                	;
 395             	55.6000     	5.550000    	                	;
 396             	40.4000     	5.550000    	                	;
 4               	14.2000     	5.550000    	                	;
 7               	10.0000     	5.550000    	                	;
 228             	49.8000     	5.550000    	                	;
 229             	49.6000     	5.550000    	                	;
 256001          	75.0000     	5.550000    	                	;
 399             	81.7000     	5.550000    	                	;
 24              	10.0000     	5.550000    	                	;
 24001           	10.0000     	5.550000    	                	;
 25              	14.5000     	5.550000    	                	;
 45001           	32.0000     	5.550000    	                	;
 71001           	8.1000      	5.550000    	                	;
 127001          	56.0000     	5.550000    	                	;
 202001          	70.0000     	5.550000    	                	;
 301001          	75.0000     	5.550000    	                	;
 304             	50.8000     	5.550000    	                	;
 422             	103.0000    	5.550000    	                	;

[RESERVOIRS]
;ID              	Head        	Pattern         
 38              	117.0000    	                	;
 43              	127.0000    	                	;
 44              	122.0000    	                	;
 88              	112.0000    	                	;

[TANKS]
;ID              	Elevation   	InitLevel   	MinLevel    	MaxLevel    	Diameter    	MinVol      	VolCurve

[PIPES]
;ID              	Node1           	Node2           	Length      	Diameter    	Roughness   	MinorLoss   	Status
 1               	126             	125001          	65.0000     	113.0000    	0.0025      	0.0000      	Open  	;
 2               	125001          	125             	260.0000    	113.0000    	0.0025      	0.0000      	Open  	;
 3               	125             	124             	164.0000    	113.0000    	0.0025      	0.0000      	Open  	;
 4               	124             	106             	250.0000    	285.0000    	0.0025      	0.0000      	Open  	;
 8               	106             	161             	100.0000    	162.8000    	0.0025      	0.0000      	Open  	;
 10              	161             	162             	68.0000     	162.8000    	0.0025      	0.0000      	Open  	;
 11              	162             	163             	164.0000    	162.8000    	0.0025      	0.0000      	Open  	;
 12              	163             	164             	164.0000    	113.0000    	0.0025      	0.0000      	Open  	;
 13              	163             	165             	65.0000     	144.6000    	0.0025      	0.0000      	Open  	;