[TITLE]
foss_iron -- Bragalli, D'Ambrosio, Lee, Lodi, Toth (2008)

[JUNCTIONS]
;ID              	Elev        	Demand     	Pattern
1	               105.15	      0.49	             ;
2	               104.4	         1.04	             ;
3	               103.35	      1.02	             ;
4	               102.5	         0.81	             ;
5	               101.24	      0.63	             ;
6	               105.4	         0.79	             ;
7	               107.9	         0.26	             ;
8	               106.5	         0.58	             ;
9	               106	         0.54	             ;
10	               104.17	      1.11	             ;
11	               103.7	         1.75	             ;
12	               102.64	      0.91	             ;
13	               101.9	         1.16	             ;
14	               102.6	         0.54	             ;
15	               103.5	         1.1	             ;
16	               104.3	         1.21	             ;
17	               105.5	         1.27	             ;
18	               104.1	         2.02	             ;
19	               102.9	         1.88	             ;
20	               102.83	      0.93	             ;
21	               102.8	         0.96	             ;
22	               103.9	         0.97	             ;
23	               104.2	         0.86	             ;
24	               107.5	         0.67	             ;
25	               104.4	         0.77	             ;
26	               103.4	         1.69	             ;
27	               103.9	         1.42	             ;
28	               105.65	      0.3	             ;
29	               104.5	         0.62	             ;
30	               104.1	         0.54	             ;
31	               104.4	         0.9	             ;
32	               104.2	         1.03	             ;
33	               104.6	         0.77	             ;
34	               104.7	         0.74	             ;
35	               105.43	      1.16	             ;
36	               105.9	         0.47	             ;

[RESERVOIRS]
;ID              	Head        	Pattern    
37                121.00                 ;

[TANKS]
;ID              	Elevation   	InitLevel   	MinLevel    	MaxLevel    	Diameter    	MinVol      	VolCurve

[PIPES]
;ID              	Node1           	Node2           	Length      	Diameter    	Roughness   	MinorLoss   	Status
  1   1  17       132.76        60.00       130.00         0.00             Open    ;
  2  17   2       374.68        60.00       130.00         0.00             Open    ;
  3   2   3       119.74        60.00       130.00         0.00             Open    ;
  4   3   4       312.72        60.00       130.00         0.00             Open    ;
  5   4   5       289.09        60.00       130.00         0.00             Open    ;
  6   5   6       336.33        60.00       130.00         0.00             Open    ;
  7   6   7       135.81        60.00       130.00         0.00             Open    ;
  8   7  24       201.26        60.00       130.00         0.00             Open    ;
  9  24   8       132.53        60.00       130.00         0.00             Open    ;
 10   8  28       144.66        60.00       130.00         0.00             Open    ;
 11  28   9       175.72        60.00       130.00         0.00             Open    ;
 12   9  36       112.17        60.00       130.00         0.00             Open    ;
 13  36   1       210.74        60.00       130.00         0.00             Open    ;
 14   1  31        75.41       200.00       130.00         0.00             Open    ;
 15  31  10       181.42       150.00       130.00         0.00             Open    ;
 16  10  11       146.96       125.00       130.00         0.00             Open    ;
 17  11  19       162.69        80.00       130.00         0.00             Open    ;
 18  19  12        99.64        60.00       130.00         0.00             Open    ;
 19  12   4        52.98        60.00       130.00         0.00             Open    ;
 20   2  18       162.97        60.00       130.00         0.00             Open    ;
 21  18  10        83.96        60.00       130.00         0.00             Open    ;
 22  10  32        49.82        60.00       130.00         0.00             Open    ;
 23  32  27        78.50       100.00       130.00         0.00             Open    ;
 24  27  16        99.27        60.00       130.00         0.00             Open    ;
 25  16  25        82.29        60.00       130.00         0.00             Open    ;
 26  25   8       147.49        60.00       130.00         0.00             Open    ;
 27   3  11       197.32        60.00       130.00         0.00             Open    ;
 28  11  26        83.30        60.00       130.00         0.00             Open    ;
 29  26  15       113.80        60.00       130.00         0.00             Open    ;
 30  15  22        80.82        60.00       130.00         0.00             Open    ;
 31  22   7       340.97        60.00       130.00         0.00             Open    ;
 32   5  13        77.39        60.00       130.00         0.00             Open    ;
 33  13  14       112.37        60.00       130.00         0.00             Open    ;
 34  14  20        37.34        60.00       130.00         0.00             Open    ;
 35  20  15       108.85        60.00       130.00         0.00             Open    ;
 36  15  16       182.82        60.00       130.00         0.00             Open    ;
 37  16  29       136.02        60.00       130.00         0.00             Open    ;
 38  29  30        56.70        60.00       130.00         0.00             Open    ;
 39  30   9       124.08        60.00       130.00         0.00             Open    ;
 40  17  18       234.60        60.00       130.00         0.00             Open    ;
 41  12  13       203.83        60.00       130.00         0.00             Open    ;
 42  19  20       248.05        60.00       130.00         0.00             Open    ;
 43  14  21        65.19        60.00       130.00         0.00             Open    ;
 44  21   6       210.09        60.00       130.00         0.00             Open    ;
 45  21  22       147.57        60.00       130.00         0.00             Open    ;
 46  22  23       103.80        60.00       130.00         0.00             Open    ;
 47  24  23       210.95        60.00       130.00         0.00             Open    ;
 48  23  25        75.08        60.00       130.00         0.00             Open    ;
 49  26  27       180.29        60.00       130.00         0.00             Open    ;
 50  28  29       149.05        60.00       130.00         0.00             Open    ;
 51  29  33       215.05        60.00       130.00         0.00             Open    ;
 52  32  33       144.44        80.00       130.00         0.00             Open    ;
 53  33  34        34.74       100.00       130.00         0.00             Open    ;
 54  31  34        59.93       125.00       130.00         0.00             Open    ;
 55  34  35       165.67        60.00       130.00         0.00             Open    ;
 56  30  35       119.97        60.00       130.00         0.00             Open    ;
 57  35  36        83.17        60.00       130.00         0.00             Open    ;
 58  37   1         1.00       250.00       130.00         0.00             Open    ;

[PUMPS]
;ID              	Node1           	Node2           	Parameters

[VALVES]
;ID              	Node1           	Node2           	Diameter    	Type	Setting     	MinorLoss

[TAGS]

[DEMANDS]
;Junction        	Demand      	Pattern         	Category

[STATUS]
;ID              	Status/Setting

[PATTERNS]
;ID              	Multipliers
;
  

[CURVES]
;ID              	X-Value     	Y-Value

[CONTROLS]

[RULES]

[ENERGY]
 

[EMITTERS]
;Junction        	Coefficient

[QUALITY]
;Node            	InitQual
 37              	1.0

[SOURCES]
;Node            	Type        	Quality     	Pattern

[REACTIONS]
;Type     	Pipe/Tank       	Coefficient


[REACTIONS]
 

[MIXING]
;Tank            	Model

[TIMES]
 Duration           	0
 Hydraulic Timestep 	1:00
 Quality Timestep   	0:05
 Pattern Timestep   	1:00
 Pattern Start      	0:00
 Report Timestep    	1:00
 Report Start       	0
 Start ClockTime    	0 am
 Statistic          	None

[REPORT]
 Status             	No
 Summary            	No
 Page               	0

[OPTIONS]
 Units              	LPS
 Headloss           	H-W
 Specific Gravity   	1
 Viscosity          	1
 Trials             	500
 Accuracy           	0.001
 Unbalanced         	Continue 10
 Pattern            	time
 Demand Multiplier  	1.0
 Emitter Exponent   	0.5
 Quality            	Cloro mg/L
 Diffusivity        	1
 Tolerance          	0.01

[COORDINATES]
;Node            	X-Coord         	Y-Coord
 2               	5679.61         	9538.83         
 3               	4862.46         	9538.83         
 4               	2750.81         	9474.11         
 5               	1852.75         	8357.61         
 6               	1974.11         	6076.05         
 7               	1974.11         	5149.68         
 8               	4235.44         	5076.86         
 9               	6411.81         	5093.04         
 10              	5412.62         	7888.35         
 11              	4510.52         	8264.56         
 12              	3033.98         	9243.53         
 13              	2301.78         	8078.48         
 14              	2944.98         	7669.90         
 15              	3786.41         	7139.97         
 16              	4830.10         	6480.58         
 17              	7099.51         	8438.51         
 18              	5505.66         	8450.65         
 19              	3563.92         	8839.00         
 20              	3167.48         	7532.36         
 21              	2730.58         	7285.60         
 22              	3511.33         	6666.67         
 23              	4097.90         	6286.41         
 24              	3337.38         	5121.36         
 25              	4530.74         	6011.33         
 26              	4215.21         	7783.17         
 27              	5194.17         	7055.02         
 28              	5218.45         	5089.00         
 29              	5622.98         	5999.19         
 30              	5950.65         	5796.93         
 31              	6614.08         	7621.36         
 32              	5380.26         	7544.50         
 33              	6318.77         	7281.55         
 34              	6549.35         	7212.78         
 35              	6585.76         	6092.23         
 36              	7152.10         	6104.37         
 1               	7111.65         	7532.36         
 37              	7669.90         	7783.17         

[VERTICES]
;Link            	X-Coord         	Y-Coord
 2              	7103.56         	9555.02         
 5              	2030.74         	9579.29         
 12             	7168.28         	5097.09         
 16             	5008.09         	7953.07         
 26             	4328.48         	5687.70         
 26             	4247.57         	5404.53         
 26             	4239.48         	5234.63         
 27             	4757.28         	8745.96         
 27             	4700.65         	8592.23         
 31             	2605.18         	5275.08         
 39             	6043.69         	5687.70         
 39             	6092.23         	5614.89         
 42             	3284.79         	8402.10         
 42             	3596.28         	8199.84         
 47             	3713.59         	5788.83         
 47             	3798.54         	5792.88         
 50             	5279.13         	5404.53         
 56             	6112.46         	6100.32         
 13             	7111.65         	7500.00         

[LABELS]
;X-Coord          	Y-Coord         	Label & Anchor Node

[BACKDROP]
 DIMENSIONS     	1000.00         	4500.00         	8000.00         	10000.00
 UNITS          	Meters
 FILE           	
 OFFSET         	0.00            	0.00

[END]
