[TITLE]
hanoi -- Bragalli, D'Ambrosio, Lee, Lodi, Toth (2008)

[JUNCTIONS]
;ID              	Elev        	Demand     	Pattern       
2                 30             247.22             ;
3                 30             236.11             ;
4                 30             36.11              ;
5                 30             201.39             ;
6                 30             279.17             ;
7                 30             375                ;
8                 30             152.78             ;
9                 30             145.83             ;
10                30             145.83             ;
11                30             138.89             ;
12                30             155.56             ;
13                30             261.11             ;
14                30             170.83             ;
15                30             77.78              ;
16                30             86.11              ;
17                30             240.28             ;
18                30             373.61             ;
19                30             16.67              ;
20                30             354.17             ;
21                30             258.33             ;
22                30             134.72             ;
23                30             290.28             ;
24                30             227.78             ;
25                30             47.22              ;
26                30             250                ;
27                30             102.78             ;
28                30             80.56              ;
29                30             100                ;
30                30             100                ;
31                30             29.17              ;
32                30             223.61             ;

[RESERVOIRS]
;ID              	Head        	Pattern
1                 100.00                 ;

[TANKS]
;ID              	Elevation   	InitLevel   	MinLevel    	MaxLevel    	Diameter    	MinVol      	VolCurve

[PIPES]
;ID              	Node1           	Node2           	Length      	Diameter    	Roughness   	MinorLoss   	Status
  1   1   2       100.00      1016.00       130.00         0.00             Open    ;
  2   2   3      1350.00      1016.00       130.00         0.00             Open    ;
  3   3   4       900.00      1016.00       130.00         0.00             Open    ;
  4   4   5      1150.00      1016.00       130.00         0.00             Open    ;
  5   5   6      1450.00      1016.00       130.00         0.00             Open    ;
  6   6   7       450.00      1016.00       130.00         0.00             Open    ;
  7   7   8       850.00      1016.00       130.00         0.00             Open    ;
  8   8   9       850.00      1016.00       130.00         0.00             Open    ;
  9   9  10       800.00      1016.00       130.00         0.00             Open    ;
 10  10  11       950.00       762.00       130.00         0.00             Open    ;
 11  11  12      1200.00       609.60       130.00         0.00             Open    ;
 12  12  13      3500.00       609.60       130.00         0.00             Open    ;
 13  10  14       800.00       508.00       130.00         0.00             Open    ;
 14  14  15       500.00       304.80       130.00         0.00             Open    ;
 15  15  16       550.00       304.80       130.00         0.00             Open    ;
 16  16  17      2730.00       304.80       130.00         0.00             Open    ;
 17  17  18      1750.00       508.00       130.00         0.00             Open    ;
 18  18  19       800.00       508.00       130.00         0.00             Open    ;
 19  19   3       400.00       609.60       130.00         0.00             Open    ;
 20   3  20      2200.00      1016.00       130.00         0.00             Open    ;
 21  20  21      1500.00       508.00       130.00         0.00             Open    ;
 22  21  22       500.00       304.80       130.00         0.00             Open    ;
 23  20  23      2650.00      1016.00       130.00         0.00             Open    ;
 24  23  24      1230.00       762.00       130.00         0.00             Open    ;
 25  24  25      1300.00       762.00       130.00         0.00             Open    ;
 26  25  26       850.00       508.00       130.00         0.00             Open    ;
 27  26  27       300.00       304.80       130.00         0.00             Open    ;
 28  27  16       750.00       304.80       130.00         0.00             Open    ;
 29  23  28      1500.00       406.40       130.00         0.00             Open    ;
 30  28  29      2000.00       304.80       130.00         0.00             Open    ;
 31  29  30      1600.00       304.80       130.00         0.00             Open    ;
 32  30  31       150.00       508.00       130.00         0.00             Open    ;
 33  31  32       860.00       406.40       130.00         0.00             Open    ;
 34  32  25       950.00       609.60       130.00         0.00             Open    ;

[PUMPS]
;ID              	Node1           	Node2           	Parameters

[VALVES]
;ID              	Node1           	Node2           	Diameter    	Type	Setting     	MinorLoss

[TAGS]

[DEMANDS]
;Junction        	Demand      	Pattern         	Category

[STATUS]
;ID              	Status/Setting

[PATTERNS]
;ID              	Multipliers

[CURVES]
;ID              	X-Value     	Y-Value

[CONTROLS]


[RULES]


[ENERGY]

[EMITTERS]
;Junction        	Coefficient

[QUALITY]
;Node            	InitQual

[SOURCES]
;Node            	Type        	Quality     	Pattern

[REACTIONS]
;Type     	Pipe/Tank       	Coefficient


[REACTIONS]

[MIXING]
;Tank            	Model

[TIMES]
 Duration           	0:00
 Hydraulic Timestep 	1:00
 Quality Timestep   	0:05
 Pattern Timestep   	2:00
 Pattern Start      	0:00
 Report Timestep    	1:00
 Report Start       	0:00
 Start ClockTime    	12 am
 Statistic          	NONE

[REPORT]
 Status             	Yes
 Summary            	No
 Page               	0

[OPTIONS]
 Units              	LPS
 Headloss           	H-W
 Specific Gravity   	1.0
 Viscosity          	1.0
 Trials             	40
 Accuracy           	0.001
 Unbalanced         	Continue 10
 Pattern            	1
 Demand Multiplier  	1.0
 Emitter Exponent   	0.5
 Quality            	Chlorine mg/L
 Diffusivity        	1.0
 Tolerance          	0.01

[COORDINATES]
;Node            	X-Coord         	Y-Coord
 2               	6000.00         	2000.00         
 3               	6000.00         	4000.00         
 4               	7500.00         	4000.00         
 5               	9000.00         	4000.00         
 6               	10000.00        	4000.00         
 7               	10000.00        	6000.00         
 8               	10000.00        	8000.00         
 9               	10000.00        	10000.00        
 10              	9000.00         	10000.00        
 11              	9000.00         	11500.00        
 12              	9000.00         	13000.00        
 13              	7000.00         	13000.00        
 14              	8000.00         	10000.00        
 15              	7000.00         	10000.00        
 16              	6000.00         	10000.00        
 17              	6000.00         	8500.00         
 18              	6000.00         	7000.00         
 19              	6000.00         	5500.00         
 20              	4500.00         	4000.00         
 21              	4500.00         	2000.00         
 22              	4500.00         	0.00            
 23              	3000.00         	4000.00         
 24              	3000.00         	7000.00         
 25              	3000.00         	10000.00        
 26              	4000.00         	10000.00        
 27              	5000.00         	10000.00        
 28              	1500.00         	4000.00         
 29              	0.00            	4000.00         
 30              	0.00            	7000.00         
 31              	0.00            	10000.00        
 32              	1500.00         	10000.00        
 1               	8000.00         	0.00            

[VERTICES]
;Link            	X-Coord         	Y-Coord

[LABELS]
;X-Coord           Y-Coord          Label & Anchor Node

[BACKDROP]
 DIMENSIONS     	-500.00         	-650.00         	10500.00        	13650.00
 UNITS          	Meters
 FILE           	
 OFFSET         	0.00            	0.00

[END]
