[TITLE]
modena -- Bragalli, D'Ambrosio, Lee, Lodi, Toth (2008)

[JUNCTIONS]
;ID              	Elev        	Demand     	Pattern       
1                 59.493         0.06               ;
2                 59.625         1.45               ;
3                 58.703         5.13               ;
4                 57.246         2.76               ;
5                 56.265         0.96               ;
6                 55.955         0.78               ;
7                 55.955         1.03               ;
8                 56.087         2.12               ;
9                 56.179         1.16               ;
10                57.003         1.78               ;
11                56.5           0.44               ;
12                57.388         0.03               ;
13                58.074         0.57               ;
14                57.019         0.36               ;
15                61.257         3.3                ;
16                59.35          0.03               ;
17                59.529         2.1                ;
18                56.594         4.67               ;
19                56.761         0                  ;
20                57.715         1.53               ;
21                57.312         4.61               ;
22                57.623         1.06               ;
23                56.987         1.32               ;
24                55.205         2.74               ;
25                55.113         0.59               ;
26                54.654         0.45               ;
27                54.325         0.64               ;
28                56.145         7.11               ;
29                56.296         0.93               ;
30                56.097         0.04               ;
31                56.139         0.02               ;
32                55.8           2.93               ;
33                53.261         2.34               ;
34                53.337         1.94               ;
35                53.513         1.19               ;
36                52.7           1.41               ;
37                52.647         2.98               ;
38                52.565         2.11               ;
39                53.565         7.74               ;
40                51.595         4.29               ;
41                51.381         7.78               ;
42                52.667         3.75               ;
43                53.499         2.37               ;
44                53.571         1.42               ;
45                53.774         0.32               ;
46                54.137         1.14               ;
47                53.68          1.23               ;
48                53.706         1.37               ;
49                51.677         1.18               ;
50                53.345         1.81               ;
51                52.832         0.97               ;
52                52.778         0.55               ;
53                59.276         2.77               ;
54                57.123         0.65               ;
55                56.484         1.38               ;
56                56.416         8.28               ;
57                56.135         1.22               ;
58                56.049         3.85               ;
59                56.765         2.62               ;
60                55.484         2.78               ;
61                55.049         1.56               ;
62                55.105         1.16               ;
63                57.951         1.22               ;
64                58.442         2.93               ;
65                57.807         1.13               ;
66                58.218         1.12               ;
67                58.727         0.48               ;
68                58.953         1.37               ;
69                59.701         2.26               ;
70                60.589         1.31               ;
71                60.812         1.06               ;
72                61.064         0.38               ;
73                61.453         1.76               ;
74                61.83          0.56               ;
75                61.435         0                  ;
76                61.092         4.64               ;
77                60.743         1.03               ;
78                58.605         3.08               ;
79                56.915         1.6                ;
80                56.749         4.49               ;
81                56.813         1.25               ;
82                57.045         0.87               ;
83                55.883         0.72               ;
84                56.454         0.49               ;
85                56.161         3.92               ;
86                54.991         0.94               ;
87                55.612         3.33               ;
88                54.892         4.17               ;
89                55.586         1.44               ;
90                55.7           1.84               ;
91                55.195         2                  ;
92                55.64          2.24               ;
93                55.929         0.2                ;
94                57.639         2.27               ;
95                57.168         1.44               ;
96                57.105         2.67               ;
97                56.971         0.6                ;
98                56.997         2.76               ;
99                56.739         0.05               ;
100               54.776         2.06               ;
101               54.257         3.19               ;
102               53.66          4.69               ;
103               53.784         1.7                ;
104               53.746         0.02               ;
105               53.377         0.1                ;
106               54.85          1.11               ;
107               54.273         1.02               ;
108               54.297         0.88               ;
109               53.954         2.33               ;
110               53.92          0.31               ;
111               52.317         0.45               ;
112               54.758         2.96               ;
113               54.213         8.12               ;
114               54.924         1.76               ;
115               52.956         5.96               ;
116               50.689         0                  ;
117               50.595         6.34               ;
118               50.731         0                  ;
119               50.703         0                  ;
120               51.02          3.03               ;
121               51.032         1.85               ;
122               51.745         1.77               ;
123               52             1.48               ;
124               52.048         0                  ;
125               52.098         1.32               ;
126               53.76          2.24               ;
127               52.271         1.26               ;
128               51.86          5.39               ;
129               52.417         1                  ;
130               53.002         1.61               ;
131               53.626         4.71               ;
132               56.366         2.64               ;
133               55.694         2.11               ;
134               55.524         1.51               ;
135               55.56          0.84               ;
136               55.917         1.05               ;
137               55.367         1.16               ;
138               55.057         2.45               ;
139               54.125         1.66               ;
140               59.35          0                  ;
141               59.104         0                  ;
142               59.841         0                  ;
143               59.841         0.8                ;
144               59.449         0.33               ;
145               59.705         0.34               ;
146               57.951         1.02               ;
147               57.61          1.23               ;
148               57.951         0.09               ;
149               55.686         0.43               ;
150               55.317         1.56               ;
151               55.81          0.8                ;
152               55.812         1.38               ;
153               56.019         0.53               ;
154               58.254         0.59               ;
155               57.504         2.33               ;
156               57.536         0.03               ;
157               57.079         0.31               ;
158               56.755         8.49               ;
159               55.885         0.32               ;
160               55.768         0.21               ;
161               54.704         0.02               ;
162               55.369         1.23               ;
163               54.993         0.99               ;
164               55.927         0.55               ;
165               56.265         0.78               ;
166               52.667         0.27               ;
167               52.754         0.27               ;
168               52.884         0.07               ;
169               54.085         9.47               ;
170               56.093         2.64               ;
171               56.049         1.02               ;
172               56.041         0.88               ;
173               56.017         0.49               ;
174               51.757         0                  ;
175               51.91          1.12               ;
176               51.799         0                  ;
177               51.483         0                  ;
178               51.116         0.01               ;
179               51.096         0                  ;
180               51.194         0                  ;
181               50.392         0                  ;
182               50.547         0.01               ;
183               51.134         1.84               ;
184               51.81          0.04               ;
185               52.345         1.68               ;
186               52.826         2.37               ;
187               53.694         0.09               ;
188               53.175         1.23               ;
189               53.229         3.9                ;
190               53.343         1.17               ;
191               53.772         1.7                ;
192               53.768         2.15               ;
193               52.204         4                  ;
194               54.405         4.46               ;
195               53.389         0.05               ;
196               54.345         0.01               ;
197               55.027         4.12               ;
198               54.439         0.39               ;
199               54.534         0.15               ;
200               54.935         1.82               ;
201               54.704         3.43               ;
202               56.7           0.62               ;
203               56.203         4.17               ;
204               55.031         2.26               ;
205               56.765         1.01               ;
206               56.197         0.54               ;
207               57.879         0.77               ;
208               58.035         0.33               ;
209               56.863         1.15               ;
210               57.238         1.53               ;
211               56.658         0                  ;
212               56.49          0.3                ;
213               57.3           0.32               ;
214               60.299         0.56               ;
215               59.849         0                  ;
216               60.998         0.19               ;
217               61.16          1.42               ;
218               55.049         0.59               ;
219               53.92          1.48               ;
220               52.144         0.92               ;
221               54.167         0.33               ;
222               55.097         0.06               ;
223               51.549         0.46               ;
224               51.745         0.72               ;
225               52.066         0                  ;
226               51.944         0                  ;
227               51.657         0.2                ;
228               51.04          0.08               ;
229               51.05          1.3                ;
230               58.492         1.07               ;
231               55.684         1.03               ;
232               55.39          0.03               ;
233               54.888         1.15               ;
234               54.858         1.43               ;
235               54.995         4.86               ;
236               52.541         4.71               ;
237               54.413         1.34               ;
238               56.157         1.87               ;
239               55.305         0.82               ;
240               55.171         0.94               ;
241               52.918         0.09               ;
242               53.066         1.28               ;
243               51.91          0.43               ;
244               52.002         0.51               ;
245               52.048         0                  ;
246               52.054         0.01               ;
247               50.705         0.01               ;
248               51.332         0                  ;
249               56.296         1.75               ;
250               55.831         1.03               ;
251               56.945         1.26               ;
252               58.013         1.36               ;
253               56.65          0.14               ;
254               56.905         0                  ;
255               56.773         1.96               ;
256               51.497         2.21               ;
257               58.651         0.62               ;
258               59.543         0                  ;
259               59.581         0.5                ;
260               59.581         0.11               ;
261               60.551         0.12               ;
262               60.786         0.22               ;
263               60.954         1.28               ;
264               57.755         0.19               ;
265               55.963         0.22               ;
266               56.809         1.19               ;
267               56.211         1.69               ;
268               55.612         0.43               ;

[RESERVOIRS]
;ID              	Head        	Pattern
269               72.00                  ;
270               73.80                  ;
271               73.00                  ;
272               74.50                  ;

[TANKS]
;ID              	Elevation   	InitLevel   	MinLevel    	MaxLevel    	Diameter    	MinVol      	VolCurve

[PIPES]
;ID              	Node1           	Node2           	Length      	Diameter    	Roughness   	MinorLoss   	Status
  1   1  16        46.84       125.00       130.00         0.00             Open    ;
  2  16   2       267.68       100.00       130.00         0.00             Open    ;
  3   2   3       541.07       100.00       130.00         0.00             Open    ;
  4   3   4       542.29       100.00       130.00         0.00             Open    ;
  5   4   5       404.72       100.00       130.00         0.00             Open    ;
  6   5 206       151.67       100.00       130.00         0.00             Open    ;
  7 206   6       341.57       100.00       130.00         0.00             Open    ;
  8   1 140        39.91       100.00       130.00         0.00             Open    ;
  9 140 143       269.73       100.00       130.00         0.00             Open    ;
 10 143 145        45.92       100.00       130.00         0.00             Open    ;
 11 145 146       890.09       100.00       130.00         0.00             Open    ;
 12 146 148        33.79       100.00       130.00         0.00             Open    ;
 13 148  63         6.03       100.00       130.00         0.00             Open    ;
 14  63 149       367.92       125.00       130.00         0.00             Open    ;
 15 149 150        97.66       125.00       130.00         0.00             Open    ;
 16 150  60       322.19       100.00       130.00         0.00             Open    ;
 17  60  61       359.48       100.00       130.00         0.00             Open    ;
 18  61 218       199.59       100.00       130.00         0.00             Open    ;
 19   1 141        57.06       200.00       130.00         0.00             Open    ;
 20 141 142       223.41       200.00       130.00         0.00             Open    ;
 21 142 144        47.03       200.00       130.00         0.00             Open    ;
 22 144 257       782.67       200.00       130.00         0.00             Open    ;
 23 257  53       231.87       125.00       130.00         0.00             Open    ;
 24  53 251       279.84       100.00       130.00         0.00             Open    ;
 25 251  57       145.70       100.00       130.00         0.00             Open    ;
 26  57  58        81.10       100.00       130.00         0.00             Open    ;
 27  58  59       550.17       100.00       130.00         0.00             Open    ;
 28  53 230       155.63       100.00       130.00         0.00             Open    ;
 29 230 252       357.81       100.00       130.00         0.00             Open    ;
 30 252   3       267.32       100.00       130.00         0.00             Open    ;
 31   3  13       612.50       100.00       130.00         0.00             Open    ;
 32  13  12       160.50       100.00       130.00         0.00             Open    ;
 33  12  11       531.71       100.00       130.00         0.00             Open    ;
 34   1 258        41.91       200.00       130.00         0.00             Open    ;
 35 258 259        95.22       200.00       130.00         0.00             Open    ;
 36 259 260        25.13       200.00       130.00         0.00             Open    ;
 37 260 215       158.12       200.00       130.00         0.00             Open    ;
 38 215 261        95.40       200.00       130.00         0.00             Open    ;
 39 261  77        52.92       200.00       130.00         0.00             Open    ;
 40  77 262        44.92       200.00       130.00         0.00             Open    ;
 41 262 216       127.05       200.00       130.00         0.00             Open    ;
 42 216 263        56.68       200.00       130.00         0.00             Open    ;
 43 263  76       181.29       200.00       130.00         0.00             Open    ;
 44  76 217       220.90       200.00       130.00         0.00             Open    ;
 45 217  75        67.65       200.00       130.00         0.00             Open    ;
 46  75  74        36.06       200.00       130.00         0.00             Open    ;
 47  74  73       242.29       150.00       130.00         0.00             Open    ;
 48  73  72        70.45       150.00       130.00         0.00             Open    ;
 49  72  71       112.83       150.00       130.00         0.00             Open    ;
 50  71  70       105.72       150.00       130.00         0.00             Open    ;
 51  70  69       199.42       150.00       130.00         0.00             Open    ;
 52  69  68       180.64       125.00       130.00         0.00             Open    ;
 53  68  78       288.76       125.00       130.00         0.00             Open    ;
 54  78 154        69.26       100.00       130.00         0.00             Open    ;
 55 154  79       718.45       100.00       130.00         0.00             Open    ;
 56  79 155       390.78       100.00       130.00         0.00             Open    ;
 57 155 156        24.00       125.00       130.00         0.00             Open    ;
 58 156  95       504.52       125.00       130.00         0.00             Open    ;
 59  95  96        41.78       150.00       130.00         0.00             Open    ;
 60  96  97       367.93       150.00       130.00         0.00             Open    ;
 61  97 157       101.86       150.00       130.00         0.00             Open    ;
 62 157  98       125.36       150.00       130.00         0.00             Open    ;
 63  98 158       699.76       150.00       130.00         0.00             Open    ;
 64 158 136       448.05       200.00       130.00         0.00             Open    ;
 65 136 159       114.29       200.00       130.00         0.00             Open    ;
 66 159 160       197.30       200.00       130.00         0.00             Open    ;
 67 160 137       235.98       200.00       130.00         0.00             Open    ;
 68 137 135       224.87       200.00       130.00         0.00             Open    ;
 69 135 222       176.73       125.00       130.00         0.00             Open    ;
 70 222 161        76.44       100.00       130.00         0.00             Open    ;
 71 161 131       356.94       100.00       130.00         0.00             Open    ;
 72 131 242       443.79       100.00       130.00         0.00             Open    ;
 73 242 130        20.55       100.00       130.00         0.00             Open    ;
 74 130 241       113.33       100.00       130.00         0.00             Open    ;
 75 241 168        25.96       100.00       130.00         0.00             Open    ;
 76 168 167       145.04       100.00       130.00         0.00             Open    ;
 77 167 166        55.24       100.00       130.00         0.00             Open    ;
 78 166 129       208.22       100.00       130.00         0.00             Open    ;
 79 129 125       190.43       100.00       130.00         0.00             Open    ;
 80 125 246        70.98       100.00       130.00         0.00             Open    ;
 81 246 245        52.04       100.00       130.00         0.00             Open    ;
 82 245 124        34.03       100.00       130.00         0.00             Open    ;
 83 124 225        79.47       100.00       130.00         0.00             Open    ;
 84 225 226       277.99       100.00       130.00         0.00             Open    ;
 85 176 227        86.03       100.00       130.00         0.00             Open    ;
 86 227 177       296.25       100.00       130.00         0.00             Open    ;
 87 177 180       111.30       100.00       130.00         0.00             Open    ;
 88 180 178       123.37       100.00       130.00         0.00             Open    ;
 89 178 179       196.27       100.00       130.00         0.00             Open    ;
 90 179 228       198.46       100.00       130.00         0.00             Open    ;
 91 228 229        75.62       100.00       130.00         0.00             Open    ;
 92 229 121       110.14       100.00       130.00         0.00             Open    ;
 93 121 118       423.57       100.00       130.00         0.00             Open    ;
 94 118 117       116.57       100.00       130.00         0.00             Open    ;
 95 117 181       100.61       100.00       130.00         0.00             Open    ;
 96 181 182       164.84       100.00       130.00         0.00             Open    ;
 97 182 116        47.49       100.00       130.00         0.00             Open    ;
 98 116 247        87.54       100.00       130.00         0.00             Open    ;
 99  49 184       189.27       150.00       130.00         0.00             Open    ;
100 184  41       244.80       150.00       130.00         0.00             Open    ;
101  41 248       293.47       150.00       130.00         0.00             Open    ;
102 248  40       308.64       150.00       130.00         0.00             Open    ;
103  40  39       566.57       150.00       130.00         0.00             Open    ;
104 226 176        95.14       100.00       130.00         0.00             Open    ;
105 247 183       248.55       100.00       130.00         0.00             Open    ;
106 183  49       187.78       100.00       130.00         0.00             Open    ;
107  39  38       357.67       125.00       130.00         0.00             Open    ;
108  38  37       700.57       100.00       130.00         0.00             Open    ;
109  37 193       404.46       100.00       130.00         0.00             Open    ;
110 193  36       160.86       125.00       130.00         0.00             Open    ;
111  36 194       557.42       125.00       130.00         0.00             Open    ;
112 194  27       127.02       150.00       130.00         0.00             Open    ;
113  27  26        46.66       150.00       130.00         0.00             Open    ;
114  26 195       674.32       150.00       130.00         0.00             Open    ;
115 195  33        50.76       125.00       130.00         0.00             Open    ;
116  26 196       138.54       100.00       130.00         0.00             Open    ;
117 196  25       199.33       100.00       130.00         0.00             Open    ;
118  25 232       231.12       100.00       130.00         0.00             Open    ;
119 232  24       187.06       100.00       130.00         0.00             Open    ;
120  24 231       240.64       100.00       130.00         0.00             Open    ;
121 231   7       173.44       125.00       130.00         0.00             Open    ;
122   7   6        23.58       100.00       130.00         0.00             Open    ;
123   6  28       526.74       125.00       130.00         0.00             Open    ;
124  28 249       500.72       100.00       130.00         0.00             Open    ;
125 249  29        15.29       100.00       130.00         0.00             Open    ;
126   7   8       265.92       125.00       130.00         0.00             Open    ;
127   8  23       355.51       125.00       130.00         0.00             Open    ;
128  23 207       189.78       125.00       130.00         0.00             Open    ;
129 207 208        28.18       125.00       130.00         0.00             Open    ;
130 208  22       129.34       125.00       130.00         0.00             Open    ;
131  22  21       361.24       125.00       130.00         0.00             Open    ;
132  21 264       223.52       150.00       130.00         0.00             Open    ;
133  20 210       185.17       150.00       130.00         0.00             Open    ;
134 210 209       154.95       150.00       130.00         0.00             Open    ;
135 209  19        34.71       200.00       130.00         0.00             Open    ;
136 264  20        31.14       150.00       130.00         0.00             Open    ;
137  19 253        42.52       200.00       130.00         0.00             Open    ;
138 253  18       356.45       200.00       130.00         0.00             Open    ;
139  18 211       128.82       200.00       130.00         0.00             Open    ;
140 211 212       140.66       200.00       130.00         0.00             Open    ;
141 212  11       113.32       200.00       130.00         0.00             Open    ;
142  11  10       555.23       150.00       130.00         0.00             Open    ;
143  10   4       272.68       150.00       130.00         0.00             Open    ;
144  59 203       315.88       100.00       130.00         0.00             Open    ;
145 203 202       284.93       100.00       130.00         0.00             Open    ;
146 202  31        97.93       125.00       130.00         0.00             Open    ;
147 265  32       262.94       100.00       130.00         0.00             Open    ;
148  32  33       635.82       100.00       130.00         0.00             Open    ;
149  33  34       415.73       150.00       130.00         0.00             Open    ;
150  34  35       122.60       150.00       130.00         0.00             Open    ;
151 265  31        29.56       100.00       130.00         0.00             Open    ;
152  59 205        33.80       100.00       130.00         0.00             Open    ;
153 205  88       377.12       100.00       130.00         0.00             Open    ;
154  88  89       629.17       150.00       130.00         0.00             Open    ;
155  89  90       133.28       200.00       130.00         0.00             Open    ;
156  90  91       348.05       200.00       130.00         0.00             Open    ;
157  91 234       292.89       300.00       130.00         0.00             Open    ;
158 234 109       488.99       300.00       130.00         0.00             Open    ;
159 138 235       289.88       100.00       130.00         0.00             Open    ;
160 235 110       486.72       100.00       130.00         0.00             Open    ;
161 102 106       260.92       200.00       130.00         0.00             Open    ;
162 106  91       163.58       200.00       130.00         0.00             Open    ;
163  48 108       424.07       200.00       130.00         0.00             Open    ;
164 108 109       173.66       200.00       130.00         0.00             Open    ;
165 109 110        99.55       150.00       130.00         0.00             Open    ;
166 110 111       307.92       150.00       130.00         0.00             Open    ;
167  59 204       283.84       100.00       130.00         0.00             Open    ;
168 204 200       141.49       125.00       130.00         0.00             Open    ;
169 200 100        58.27       125.00       130.00         0.00             Open    ;
170 100 199        79.59       150.00       130.00         0.00             Open    ;
171 199 198        39.41       150.00       130.00         0.00             Open    ;
172 198 101       126.25       150.00       130.00         0.00             Open    ;
173  29  30        61.39       100.00       130.00         0.00             Open    ;