[TITLE]
NewYork -- Bragalli, D'Ambrosio, Lee, Lodi, Toth (2008)

[JUNCTIONS]
;ID              	Elev        	Demand     	Pattern
2                 77.72          2616.47694         ;
3                 77.72          2616.47694         ;
4                 77.72          2497.54617         ;
5                 77.72          2497.54617         ;
6                 77.72          2497.54617         ;
7                 77.72          2497.54617         ;
8                 77.72          2497.54617         ;
9                 77.72          4813.8645          ;
10                77.72          28.31685           ;
11                77.72          4813.8645          ;
12                77.72          3315.90314         ;
13                77.72          3315.90314         ;
14                77.72          2616.47694         ;
15                77.72          2616.47694         ;
16                79.25          4813.8645          ;
17                83.15          1628.21888         ;
18                77.72          3315.90314         ;
19                77.72          3315.90314         ;
20                77.72          4813.8645          ;

[RESERVOIRS]
;ID              	Head        	Pattern
1                 91.44                  ;

[TANKS]
;ID              	Elevation   	InitLevel   	MinLevel    	MaxLevel    	Diameter    	MinVol      	VolCurve

[PIPES]
;ID              	Node1           	Node2           	Length      	Diameter    	Roughness   	MinorLoss   	Status
  1   1   2      3535.69      4572.00       100.00         0.00             Open    ;
  2   2   3      6035.06      4572.00       100.00         0.00             Open    ;
  3   3   4      2225.05      4572.00       100.00         0.00             Open    ;
  4   4   5      2529.85      4572.00       100.00         0.00             Open    ;
  5   5   6      2621.29      4572.00       100.00         0.00             Open    ;
  6   6   7      5821.70      4572.00       100.00         0.00             Open    ;
  7   7   8      2926.09      3353.00       100.00         0.00             Open    ;
  8   8   9      3810.01      3353.00       100.00         0.00             Open    ;
  9   9  10      2926.09      4572.00       100.00         0.00             Open    ;
 10  11   9      3413.77      5182.00       100.00         0.00             Open    ;
 11  12  11      4419.61      5182.00       100.00         0.00             Open    ;
 12  13  12      3718.57      5182.00       100.00         0.00             Open    ;
 13  14  13      7345.70      5182.00       100.00         0.00             Open    ;
 14  15  14      6431.30      5182.00       100.00         0.00             Open    ;
 15   1  15      4724.42      5182.00       100.00         0.00             Open    ;
 16  10  17      8046.75      1829.00       100.00         0.00             Open    ;
 17  12  18      9509.79      1829.00       100.00         0.00             Open    ;
 18  18  19      7315.22      1524.00       100.00         0.00             Open    ;
 19  11  20      4389.13      1524.00       100.00         0.00             Open    ;
 20  20  16     11704.36      1524.00       100.00         0.00             Open    ;
 21   9  16      8046.75      1829.00       100.00         0.00             Open    ;
 22   1  15      4724.42      2743.21       100.00         0.00             Open    ;
 23  10  17      8046.75      2438.41       100.00         0.00             Open    ;
 24  12  18      9509.79      2438.41       100.00         0.00             Open    ;
 25  18  19      7315.22      2133.61       100.00         0.00             Open    ;
 26  11  20      4389.13      1828.81       100.00         0.00             Open    ;
 27   9  16      8046.75      1828.81       100.00         0.00             Open    ;

[PUMPS]
;ID              	Node1           	Node2           	Parameters

[VALVES]
;ID              	Node1           	Node2           	Diameter    	Type	Setting     	MinorLoss   

[TAGS]

[DEMANDS]
;Junction        	Demand      	Pattern         	Category

[STATUS]
;ID              	Status/Setting

[PATTERNS]
;ID              	Multipliers

[CURVES]
;ID              	X-Value     	Y-Value

[CONTROLS]

[RULES]

[ENERGY]

[EMITTERS]
;Junction        	Coefficient

[QUALITY]
;Node            	InitQual

[SOURCES]
;Node            	Type        	Quality     	Pattern

[REACTIONS]
;Type     	Pipe/Tank       	Coefficient

[REACTIONS]

[MIXING]
;Tank            	Model

[TIMES]
 Duration           	0:00
 Hydraulic Timestep 	1:00 
 Quality Timestep   	0:05 
 Pattern Timestep   	2:00 
 Pattern Start      	0:00 
 Report Timestep    	1:00 
 Report Start       	0:00 
 Start ClockTime    	12 am
 Statistic          	NONE

[REPORT]
 Status           	Yes
 Summary        	No 
 Page		   	0 

[REPORT]
 Status             	Yes
 Summary            	No
 Page               	0

[OPTIONS]
 Units              	LPS
 Headloss           	H-W
 Specific Gravity   	1.0
 Viscosity          	1.0
 Trials             	40
 Accuracy           	0.001
 Unbalanced         	Continue 10
 Pattern            	1
 Demand Multiplier  	1.0
 Emitter Exponent   	0.5
 Quality            	Chlorine mg/L
 Diffusivity        	1.0
 Tolerance          	0.01

[COORDINATES]
;Node            	X-Coord         	Y-Coord
 2               	3306.32         	8136.14         
 3               	2998.38         	7066.45         
 4               	2868.72         	6110.21         
 5               	3030.79         	5121.56         
 6               	3241.49         	4230.15         
 7               	3711.51         	3419.77         
 8               	4230.15         	2852.51         
 9               	4700.16         	2495.95         
 10              	4294.98         	1961.10         
 17              	3354.94         	745.54          
 15              	5089.14         	8282.01         
 14              	5461.91         	7017.83         
 13              	5769.85         	6207.46         
 12              	5802.27         	5640.19         
 18              	7277.15         	5623.99         
 19              	8687.20         	5931.93         
 11              	5818.48         	4294.98         
 20              	7730.96         	2933.55         
 16              	6693.68         	810.37          
 1               	4100.49         	9189.63         

[VERTICES]
;Link            	X-Coord         	Y-Coord
 101             	3484.60         	8865.48         
 102             	2901.13         	7649.92         
 103             	2690.44         	6612.64         
 104             	2814.48         	5549.15         
 105             	2996.54         	4582.32         
 106             	3354.39         	3734.78         
 107             	3883.83         	3054.49         
 108             	4398.79         	2588.36         
 109             	4416.54         	2286.49         
 116             	3688.50         	1407.50         
 115             	4721.28         	8833.59         
 114             	5366.80         	7741.91         
 113             	5709.36         	6714.22         
 112             	5872.48         	5958.41         
 117             	6552.17         	5735.47         
 118             	7927.86         	5893.16         
 111             	5921.42         	4957.91         
 110             	5355.92         	3294.03         
 119             	6834.92         	3707.28         
 120             	7324.30         	1804.15         
 121             	5529.92         	1602.96         

[LABELS]
;X-Coord           Y-Coord          Label & Anchor Node

[BACKDROP]
 DIMENSIONS     	980.00          	980.00          	5000.00         	5000.00         
 UNITS          	None
 FILE           	
 OFFSET         	0.00            	0.00            

[END]
